256 
 
Si 	 0.000000 	 0.000000 	 0.000000 
Si 	 1.250000 	 0.000000 	 0.000000 
Si 	 2.500000 	 0.000000 	 0.000000 
Si 	 3.750000 	 0.000000 	 0.000000 
Si 	 0.000000 	 1.250000 	 0.000000 
Si 	 1.250000 	 1.250000 	 0.000000 
Si 	 2.500000 	 1.250000 	 0.000000 
Si 	 3.750000 	 1.250000 	 0.000000 
Si 	 0.000000 	 2.500000 	 0.000000 
Si 	 1.250000 	 2.500000 	 0.000000 
Si 	 2.500000 	 2.500000 	 0.000000 
Si 	 3.750000 	 2.500000 	 0.000000 
Si 	 0.000000 	 3.750000 	 0.000000 
Si 	 1.250000 	 3.750000 	 0.000000 
Si 	 2.500000 	 3.750000 	 0.000000 
Si 	 3.750000 	 3.750000 	 0.000000 
Si 	 0.000000 	 0.000000 	 1.250000 
Si 	 1.250000 	 0.000000 	 1.250000 
Si 	 2.500000 	 0.000000 	 1.250000 
Si 	 3.750000 	 0.000000 	 1.250000 
Si 	 0.000000 	 1.250000 	 1.250000 
Si 	 1.250000 	 1.250000 	 1.250000 
Si 	 2.500000 	 1.250000 	 1.250000 
Si 	 3.750000 	 1.250000 	 1.250000 
Si 	 0.000000 	 2.500000 	 1.250000 
Si 	 1.250000 	 2.500000 	 1.250000 
Si 	 2.500000 	 2.500000 	 1.250000 
Si 	 3.750000 	 2.500000 	 1.250000 
Si 	 0.000000 	 3.750000 	 1.250000 
Si 	 1.250000 	 3.750000 	 1.250000 
Si 	 2.500000 	 3.750000 	 1.250000 
Si 	 3.750000 	 3.750000 	 1.250000 
Si 	 0.000000 	 0.000000 	 2.500000 
Si 	 1.250000 	 0.000000 	 2.500000 
Si 	 2.500000 	 0.000000 	 2.500000 
Si 	 3.750000 	 0.000000 	 2.500000 
Si 	 0.000000 	 1.250000 	 2.500000 
Si 	 1.250000 	 1.250000 	 2.500000 
Si 	 2.500000 	 1.250000 	 2.500000 
Si 	 3.750000 	 1.250000 	 2.500000 
Si 	 0.000000 	 2.500000 	 2.500000 
Si 	 1.250000 	 2.500000 	 2.500000 
Si 	 2.500000 	 2.500000 	 2.500000 
Si 	 3.750000 	 2.500000 	 2.500000 
Si 	 0.000000 	 3.750000 	 2.500000 
Si 	 1.250000 	 3.750000 	 2.500000 
Si 	 2.500000 	 3.750000 	 2.500000 
Si 	 3.750000 	 3.750000 	 2.500000 
Si 	 0.000000 	 0.000000 	 3.750000 
Si 	 1.250000 	 0.000000 	 3.750000 
Si 	 2.500000 	 0.000000 	 3.750000 
Si 	 3.750000 	 0.000000 	 3.750000 
Si 	 0.000000 	 1.250000 	 3.750000 
Si 	 1.250000 	 1.250000 	 3.750000 
Si 	 2.500000 	 1.250000 	 3.750000 
Si 	 3.750000 	 1.250000 	 3.750000 
Si 	 0.000000 	 2.500000 	 3.750000 
Si 	 1.250000 	 2.500000 	 3.750000 
Si 	 2.500000 	 2.500000 	 3.750000 
Si 	 3.750000 	 2.500000 	 3.750000 
Si 	 0.000000 	 3.750000 	 3.750000 
Si 	 1.250000 	 3.750000 	 3.750000 
Si 	 2.500000 	 3.750000 	 3.750000 
Si 	 3.750000 	 3.750000 	 3.750000 
Si 	 0.625000 	 0.625000 	 0.000000 
Si 	 0.625000 	 0.000000 	 0.625000 
Si 	 0.000000 	 0.625000 	 0.625000 
Si 	 1.875000 	 0.625000 	 0.000000 
Si 	 1.875000 	 0.000000 	 0.625000 
Si 	 1.250000 	 0.625000 	 0.625000 
Si 	 3.125000 	 0.625000 	 0.000000 
Si 	 3.125000 	 0.000000 	 0.625000 
Si 	 2.500000 	 0.625000 	 0.625000 
Si 	 4.375000 	 0.625000 	 0.000000 
Si 	 4.375000 	 0.000000 	 0.625000 
Si 	 3.750000 	 0.625000 	 0.625000 
Si 	 0.625000 	 1.875000 	 0.000000 
Si 	 0.625000 	 1.250000 	 0.625000 
Si 	 0.000000 	 1.875000 	 0.625000 
Si 	 1.875000 	 1.875000 	 0.000000 
Si 	 1.875000 	 1.250000 	 0.625000 
Si 	 1.250000 	 1.875000 	 0.625000 
Si 	 3.125000 	 1.875000 	 0.000000 
Si 	 3.125000 	 1.250000 	 0.625000 
Si 	 2.500000 	 1.875000 	 0.625000 
Si 	 4.375000 	 1.875000 	 0.000000 
Si 	 4.375000 	 1.250000 	 0.625000 
Si 	 3.750000 	 1.875000 	 0.625000 
Si 	 0.625000 	 3.125000 	 0.000000 
Si 	 0.625000 	 2.500000 	 0.625000 
Si 	 0.000000 	 3.125000 	 0.625000 
Si 	 1.875000 	 3.125000 	 0.000000 
Si 	 1.875000 	 2.500000 	 0.625000 
Si 	 1.250000 	 3.125000 	 0.625000 
Si 	 3.125000 	 3.125000 	 0.000000 
Si 	 3.125000 	 2.500000 	 0.625000 
Si 	 2.500000 	 3.125000 	 0.625000 
Si 	 4.375000 	 3.125000 	 0.000000 
Si 	 4.375000 	 2.500000 	 0.625000 
Si 	 3.750000 	 3.125000 	 0.625000 
Si 	 0.625000 	 4.375000 	 0.000000 
Si 	 0.625000 	 3.750000 	 0.625000 
Si 	 0.000000 	 4.375000 	 0.625000 
Si 	 1.875000 	 4.375000 	 0.000000 
Si 	 1.875000 	 3.750000 	 0.625000 
Si 	 1.250000 	 4.375000 	 0.625000 
Si 	 3.125000 	 4.375000 	 0.000000 
Si 	 3.125000 	 3.750000 	 0.625000 
Si 	 2.500000 	 4.375000 	 0.625000 
Si 	 4.375000 	 4.375000 	 0.000000 
Si 	 4.375000 	 3.750000 	 0.625000 
Si 	 3.750000 	 4.375000 	 0.625000 
Si 	 0.625000 	 0.625000 	 1.250000 
Si 	 0.625000 	 0.000000 	 1.875000 
Si 	 0.000000 	 0.625000 	 1.875000 
Si 	 1.875000 	 0.625000 	 1.250000 
Si 	 1.875000 	 0.000000 	 1.875000 
Si 	 1.250000 	 0.625000 	 1.875000 
Si 	 3.125000 	 0.625000 	 1.250000 
Si 	 3.125000 	 0.000000 	 1.875000 
Si 	 2.500000 	 0.625000 	 1.875000 
Si 	 4.375000 	 0.625000 	 1.250000 
Si 	 4.375000 	 0.000000 	 1.875000 
Si 	 3.750000 	 0.625000 	 1.875000 
Si 	 0.625000 	 1.875000 	 1.250000 
Si 	 0.625000 	 1.250000 	 1.875000 
Si 	 0.000000 	 1.875000 	 1.875000 
Si 	 1.875000 	 1.875000 	 1.250000 
Si 	 1.875000 	 1.250000 	 1.875000 
Si 	 1.250000 	 1.875000 	 1.875000 
Si 	 3.125000 	 1.875000 	 1.250000 
Si 	 3.125000 	 1.250000 	 1.875000 
Si 	 2.500000 	 1.875000 	 1.875000 
Si 	 4.375000 	 1.875000 	 1.250000 
Si 	 4.375000 	 1.250000 	 1.875000 
Si 	 3.750000 	 1.875000 	 1.875000 
Si 	 0.625000 	 3.125000 	 1.250000 
Si 	 0.625000 	 2.500000 	 1.875000 
Si 	 0.000000 	 3.125000 	 1.875000 
Si 	 1.875000 	 3.125000 	 1.250000 
Si 	 1.875000 	 2.500000 	 1.875000 
Si 	 1.250000 	 3.125000 	 1.875000 
Si 	 3.125000 	 3.125000 	 1.250000 
Si 	 3.125000 	 2.500000 	 1.875000 
Si 	 2.500000 	 3.125000 	 1.875000 
Si 	 4.375000 	 3.125000 	 1.250000 
Si 	 4.375000 	 2.500000 	 1.875000 
Si 	 3.750000 	 3.125000 	 1.875000 
Si 	 0.625000 	 4.375000 	 1.250000 
Si 	 0.625000 	 3.750000 	 1.875000 
Si 	 0.000000 	 4.375000 	 1.875000 
Si 	 1.875000 	 4.375000 	 1.250000 
Si 	 1.875000 	 3.750000 	 1.875000 
Si 	 1.250000 	 4.375000 	 1.875000 
Si 	 3.125000 	 4.375000 	 1.250000 
Si 	 3.125000 	 3.750000 	 1.875000 
Si 	 2.500000 	 4.375000 	 1.875000 
Si 	 4.375000 	 4.375000 	 1.250000 
Si 	 4.375000 	 3.750000 	 1.875000 
Si 	 3.750000 	 4.375000 	 1.875000 
Si 	 0.625000 	 0.625000 	 2.500000 
Si 	 0.625000 	 0.000000 	 3.125000 
Si 	 0.000000 	 0.625000 	 3.125000 
Si 	 1.875000 	 0.625000 	 2.500000 
Si 	 1.875000 	 0.000000 	 3.125000 
Si 	 1.250000 	 0.625000 	 3.125000 
Si 	 3.125000 	 0.625000 	 2.500000 
Si 	 3.125000 	 0.000000 	 3.125000 
Si 	 2.500000 	 0.625000 	 3.125000 
Si 	 4.375000 	 0.625000 	 2.500000 
Si 	 4.375000 	 0.000000 	 3.125000 
Si 	 3.750000 	 0.625000 	 3.125000 
Si 	 0.625000 	 1.875000 	 2.500000 
Si 	 0.625000 	 1.250000 	 3.125000 
Si 	 0.000000 	 1.875000 	 3.125000 
Si 	 1.875000 	 1.875000 	 2.500000 
Si 	 1.875000 	 1.250000 	 3.125000 
Si 	 1.250000 	 1.875000 	 3.125000 
Si 	 3.125000 	 1.875000 	 2.500000 
Si 	 3.125000 	 1.250000 	 3.125000 
Si 	 2.500000 	 1.875000 	 3.125000 
Si 	 4.375000 	 1.875000 	 2.500000 
Si 	 4.375000 	 1.250000 	 3.125000 
Si 	 3.750000 	 1.875000 	 3.125000 
Si 	 0.625000 	 3.125000 	 2.500000 
Si 	 0.625000 	 2.500000 	 3.125000 
Si 	 0.000000 	 3.125000 	 3.125000 
Si 	 1.875000 	 3.125000 	 2.500000 
Si 	 1.875000 	 2.500000 	 3.125000 
Si 	 1.250000 	 3.125000 	 3.125000 
Si 	 3.125000 	 3.125000 	 2.500000 
Si 	 3.125000 	 2.500000 	 3.125000 
Si 	 2.500000 	 3.125000 	 3.125000 
Si 	 4.375000 	 3.125000 	 2.500000 
Si 	 4.375000 	 2.500000 	 3.125000 
Si 	 3.750000 	 3.125000 	 3.125000 
Si 	 0.625000 	 4.375000 	 2.500000 
Si 	 0.625000 	 3.750000 	 3.125000 
Si 	 0.000000 	 4.375000 	 3.125000 
Si 	 1.875000 	 4.375000 	 2.500000 
Si 	 1.875000 	 3.750000 	 3.125000 
Si 	 1.250000 	 4.375000 	 3.125000 
Si 	 3.125000 	 4.375000 	 2.500000 
Si 	 3.125000 	 3.750000 	 3.125000 
Si 	 2.500000 	 4.375000 	 3.125000 
Si 	 4.375000 	 4.375000 	 2.500000 
Si 	 4.375000 	 3.750000 	 3.125000 
Si 	 3.750000 	 4.375000 	 3.125000 
Si 	 0.625000 	 0.625000 	 3.750000 
Si 	 0.625000 	 0.000000 	 4.375000 
Si 	 0.000000 	 0.625000 	 4.375000 
Si 	 1.875000 	 0.625000 	 3.750000 
Si 	 1.875000 	 0.000000 	 4.375000 
Si 	 1.250000 	 0.625000 	 4.375000 
Si 	 3.125000 	 0.625000 	 3.750000 
Si 	 3.125000 	 0.000000 	 4.375000 
Si 	 2.500000 	 0.625000 	 4.375000 
Si 	 4.375000 	 0.625000 	 3.750000 
Si 	 4.375000 	 0.000000 	 4.375000 
Si 	 3.750000 	 0.625000 	 4.375000 
Si 	 0.625000 	 1.875000 	 3.750000 
Si 	 0.625000 	 1.250000 	 4.375000 
Si 	 0.000000 	 1.875000 	 4.375000 
Si 	 1.875000 	 1.875000 	 3.750000 
Si 	 1.875000 	 1.250000 	 4.375000 
Si 	 1.250000 	 1.875000 	 4.375000 
Si 	 3.125000 	 1.875000 	 3.750000 
Si 	 3.125000 	 1.250000 	 4.375000 
Si 	 2.500000 	 1.875000 	 4.375000 
Si 	 4.375000 	 1.875000 	 3.750000 
Si 	 4.375000 	 1.250000 	 4.375000 
Si 	 3.750000 	 1.875000 	 4.375000 
Si 	 0.625000 	 3.125000 	 3.750000 
Si 	 0.625000 	 2.500000 	 4.375000 
Si 	 0.000000 	 3.125000 	 4.375000 
Si 	 1.875000 	 3.125000 	 3.750000 
Si 	 1.875000 	 2.500000 	 4.375000 
Si 	 1.250000 	 3.125000 	 4.375000 
Si 	 3.125000 	 3.125000 	 3.750000 
Si 	 3.125000 	 2.500000 	 4.375000 
Si 	 2.500000 	 3.125000 	 4.375000 
Si 	 4.375000 	 3.125000 	 3.750000 
Si 	 4.375000 	 2.500000 	 4.375000 
Si 	 3.750000 	 3.125000 	 4.375000 
Si 	 0.625000 	 4.375000 	 3.750000 
Si 	 0.625000 	 3.750000 	 4.375000 
Si 	 0.000000 	 4.375000 	 4.375000 
Si 	 1.875000 	 4.375000 	 3.750000 
Si 	 1.875000 	 3.750000 	 4.375000 
Si 	 1.250000 	 4.375000 	 4.375000 
Si 	 3.125000 	 4.375000 	 3.750000 
Si 	 3.125000 	 3.750000 	 4.375000 
Si 	 2.500000 	 4.375000 	 4.375000 
Si 	 4.375000 	 4.375000 	 3.750000 
Si 	 4.375000 	 3.750000 	 4.375000 
Si 	 3.750000 	 4.375000 	 4.375000 
