8 
 
Si 	 0.000000 	 0.000000 	 0.000000 
Si 	 1.000000 	 0.000000 	 0.000000 
Si 	 0.000000 	 1.000000 	 0.000000 
Si 	 1.000000 	 1.000000 	 0.000000 
Si 	 0.000000 	 0.000000 	 1.000000 
Si 	 1.000000 	 0.000000 	 1.000000 
Si 	 0.000000 	 1.000000 	 1.000000 
Si 	 1.000000 	 1.000000 	 1.000000 
